Z1188305542
     RDKit          3D

 25 25  0  0  0  0  0  0  0  0999 V2000
    2.2228   -0.8740   -0.3234 C   0  0  0  0  0  0  0  0  0  0  0  0
    1.1163   -0.3410    0.5829 C   0  0  0  0  0  0  0  0  0  0  0  0
    1.1519    1.0925    0.8049 N   0  0  0  0  0  0  0  0  0  0  0  0
    1.0929    1.9577   -0.3541 C   0  0  0  0  0  0  0  0  0  0  0  0
    2.0238    1.6330    2.0818 S   0  0  0  0  0  0  0  0  0  0  0  0
    1.7130    3.0319    2.2713 O   0  0  0  0  0  0  0  0  0  0  0  0
    1.7733    0.7556    3.2033 O   0  0  0  0  0  0  0  0  0  0  0  0
    3.7750    1.5214    1.6865 C   0  0  0  0  0  0  0  0  0  0  0  0
    4.3737    2.4313    0.8292 C   0  0  0  0  0  0  0  0  0  0  0  0
    5.6518    2.3565    0.4975 N   0  0  0  0  0  0  0  0  0  0  0  0
    6.3918    1.3876    1.0068 C   0  0  0  0  0  0  0  0  0  0  0  0
    5.8630    0.4486    1.8830 C   0  0  0  0  0  0  0  0  0  0  0  0
    6.6547   -0.5190    2.3884 F   0  0  0  0  0  0  0  0  0  0  0  0
    4.5254    0.4982    2.2373 C   0  0  0  0  0  0  0  0  0  0  0  0
    2.1546   -1.9569   -0.3636 H   0  0  0  0  0  0  0  0  0  0  0  0
    2.1179   -0.4859   -1.3322 H   0  0  0  0  0  0  0  0  0  0  0  0
    3.2042   -0.6029    0.0589 H   0  0  0  0  0  0  0  0  0  0  0  0
    0.1391   -0.5797    0.1555 H   0  0  0  0  0  0  0  0  0  0  0  0
    1.1788   -0.7895    1.5750 H   0  0  0  0  0  0  0  0  0  0  0  0
    0.2031    1.7064   -0.9279 H   0  0  0  0  0  0  0  0  0  0  0  0
    1.0097    2.9770    0.0134 H   0  0  0  0  0  0  0  0  0  0  0  0
    1.9784    1.8658   -0.9867 H   0  0  0  0  0  0  0  0  0  0  0  0
    3.8095    3.2502    0.4107 H   0  0  0  0  0  0  0  0  0  0  0  0
    7.4307    1.3596    0.7135 H   0  0  0  0  0  0  0  0  0  0  0  0
    4.0774   -0.2108    2.9149 H   0  0  0  0  0  0  0  0  0  0  0  0
  1  2  1  0
  2  3  1  0
  3  4  1  0
  3  5  1  0
  5  6  2  0
  5  7  2  0
  5  8  1  0
  8  9  2  0
  9 10  1  0
 10 11  2  0
 11 12  1  0
 12 13  1  0
 12 14  2  0
 14  8  1  0
  1 15  1  0
  1 16  1  0
  1 17  1  0
  2 18  1  0
  2 19  1  0
  4 20  1  0
  4 21  1  0
  4 22  1  0
  9 23  1  0
 11 24  1  0
 14 25  1  0
M  END
>  <SASA>  (1)
542.44421910397875

>  <energy in water (kcal/mol)>  (1)
-28051.507323767913

>  <boltzmann weight in water>  (1)
0.1480677773594316

>  <atom.dprop.isotropic shielding in water>  (1)
179.54301000000001 142.355537 141.100796 156.75980100000001 190.00276400000001 139.18972400000001 146.88760199999999 54.005952999999998 55.045672000000003 -50.960698999999998
55.816923000000003 29.830762 290.389748 73.629739000000001 31.452580000000001 30.970565000000001 32.006028999999998 28.699752 27.575223000000001 29.227765999999999 28.160786999999999
29.12942 23.233079 23.220669000000001 23.958030000000001

$$$$
Z1188305542
     RDKit          3D

 25 25  0  0  0  0  0  0  0  0999 V2000
    2.3119   -0.6995   -0.4728 C   0  0  0  0  0  0  0  0  0  0  0  0
    1.3017   -0.3703    0.6231 C   0  0  0  0  0  0  0  0  0  0  0  0
    1.1361    1.0459    0.8919 N   0  0  0  0  0  0  0  0  0  0  0  0
    0.7159    1.8976   -0.2005 C   0  0  0  0  0  0  0  0  0  0  0  0
    2.1293    1.7216    2.0054 S   0  0  0  0  0  0  0  0  0  0  0  0
    1.6107    3.0324    2.3255 O   0  0  0  0  0  0  0  0  0  0  0  0
    2.2700    0.7952    3.1064 O   0  0  0  0  0  0  0  0  0  0  0  0
    3.7576    1.9560    1.2778 C   0  0  0  0  0  0  0  0  0  0  0  0
    3.9939    2.9751    0.3685 C   0  0  0  0  0  0  0  0  0  0  0  0
    5.1724    3.1542   -0.2041 N   0  0  0  0  0  0  0  0  0  0  0  0
    6.1668    2.3413    0.1058 C   0  0  0  0  0  0  0  0  0  0  0  0
    6.0076    1.3079    1.0200 C   0  0  0  0  0  0  0  0  0  0  0  0
    7.0514    0.5070    1.3169 F   0  0  0  0  0  0  0  0  0  0  0  0
    4.7811    1.0925    1.6252 C   0  0  0  0  0  0  0  0  0  0  0  0
    2.4132   -1.7780   -0.5458 H   0  0  0  0  0  0  0  0  0  0  0  0
    1.9786   -0.3205   -1.4342 H   0  0  0  0  0  0  0  0  0  0  0  0
    3.2862   -0.2752   -0.2438 H   0  0  0  0  0  0  0  0  0  0  0  0
    0.3194   -0.7668    0.3544 H   0  0  0  0  0  0  0  0  0  0  0  0
    1.6059   -0.8116    1.5729 H   0  0  0  0  0  0  0  0  0  0  0  0
   -0.2159    1.5073   -0.6057 H   0  0  0  0  0  0  0  0  0  0  0  0
    0.5422    2.8864    0.2158 H   0  0  0  0  0  0  0  0  0  0  0  0
    1.4658    1.9578   -0.9926 H   0  0  0  0  0  0  0  0  0  0  0  0
    3.2145    3.6739    0.1068 H   0  0  0  0  0  0  0  0  0  0  0  0
    7.1138    2.5177   -0.3827 H   0  0  0  0  0  0  0  0  0  0  0  0
    4.6166    0.3031    2.3409 H   0  0  0  0  0  0  0  0  0  0  0  0
  1  2  1  0
  2  3  1  0
  3  4  1  0
  3  5  1  0
  5  6  2  0
  5  7  2  0
  5  8  1  0
  8  9  2  0
  9 10  1  0
 10 11  2  0
 11 12  1  0
 12 13  1  0
 12 14  2  0
 14  8  1  0
  1 15  1  0
  1 16  1  0
  1 17  1  0
  2 18  1  0
  2 19  1  0
  4 20  1  0
  4 21  1  0
  4 22  1  0
  9 23  1  0
 11 24  1  0
 14 25  1  0
M  END
>  <SASA>  (2)
542.44421910397875

>  <energy in water (kcal/mol)>  (2)
-28051.505581309648

>  <boltzmann weight in water>  (2)
0.14763266909352257

>  <atom.dprop.isotropic shielding in water>  (2)
179.70784 142.19068999999999 141.03401600000001 156.702133 189.94099299999999 138.33631 147.38248999999999 53.959936999999996 54.944262999999999 -50.722437999999997 55.828639000000003
29.815999000000001 290.40139499999998 73.656712999999996 31.459781 30.982885 31.938787999999999 28.709664 27.552631999999999 29.210289 28.161341 29.121829000000002 23.232078000000001
23.221782000000001 23.95533

$$$$
Z1188305542
     RDKit          3D

 25 25  0  0  0  0  0  0  0  0999 V2000
    2.1344   -0.3778   -0.7879 C   0  0  0  0  0  0  0  0  0  0  0  0
    1.4086   -0.3482    0.5547 C   0  0  0  0  0  0  0  0  0  0  0  0
    1.0962    0.9805    1.0472 N   0  0  0  0  0  0  0  0  0  0  0  0
    0.2863    1.8396    0.2093 C   0  0  0  0  0  0  0  0  0  0  0  0
    2.2213    1.7226    1.9777 S   0  0  0  0  0  0  0  0  0  0  0  0
    1.5992    2.8736    2.5926 O   0  0  0  0  0  0  0  0  0  0  0  0
    2.7878    0.7395    2.8739 O   0  0  0  0  0  0  0  0  0  0  0  0
    3.5474    2.3328    0.9268 C   0  0  0  0  0  0  0  0  0  0  0  0
    3.3798    3.4745    0.1586 C   0  0  0  0  0  0  0  0  0  0  0  0
    4.3260    3.9342   -0.6430 N   0  0  0  0  0  0  0  0  0  0  0  0
    5.4783    3.2908   -0.7091 C   0  0  0  0  0  0  0  0  0  0  0  0
    5.7226    2.1487    0.0429 C   0  0  0  0  0  0  0  0  0  0  0  0
    6.9171    1.5281   -0.0473 F   0  0  0  0  0  0  0  0  0  0  0  0
    4.7446    1.6410    0.8809 C   0  0  0  0  0  0  0  0  0  0  0  0
    2.3948   -1.4046   -1.0252 H   0  0  0  0  0  0  0  0  0  0  0  0
    1.4994    0.0073   -1.5801 H   0  0  0  0  0  0  0  0  0  0  0  0
    3.0477    0.2108   -0.7490 H   0  0  0  0  0  0  0  0  0  0  0  0
    0.4659   -0.8964    0.4801 H   0  0  0  0  0  0  0  0  0  0  0  0
    2.0171   -0.8098    1.3331 H   0  0  0  0  0  0  0  0  0  0  0  0
   -0.6360    1.3157   -0.0332 H   0  0  0  0  0  0  0  0  0  0  0  0
    0.0561    2.7273    0.7925 H   0  0  0  0  0  0  0  0  0  0  0  0
    0.8002    2.1269   -0.7110 H   0  0  0  0  0  0  0  0  0  0  0  0
    2.4622    4.0402    0.2028 H   0  0  0  0  0  0  0  0  0  0  0  0
    6.2277    3.6949   -1.3734 H   0  0  0  0  0  0  0  0  0  0  0  0
    4.8951    0.7588    1.4823 H   0  0  0  0  0  0  0  0  0  0  0  0
  1  2  1  0
  2  3  1  0
  3  4  1  0
  3  5  1  0
  5  6  2  0
  5  7  2  0
  5  8  1  0
  8  9  2  0
  9 10  1  0
 10 11  2  0
 11 12  1  0
 12 13  1  0
 12 14  2  0
 14  8  1  0
  1 15  1  0
  1 16  1  0
  1 17  1  0
  2 18  1  0
  2 19  1  0
  4 20  1  0
  4 21  1  0
  4 22  1  0
  9 23  1  0
 11 24  1  0
 14 25  1  0
M  END
>  <SASA>  (3)
542.44421910397875

>  <energy in water (kcal/mol)>  (3)
-28051.50421805661

>  <boltzmann weight in water>  (3)
0.1472931436309122

>  <atom.dprop.isotropic shielding in water>  (3)
179.63329899999999 142.11192800000001 141.121388 156.677212 189.70335 138.40103199999999 147.04870399999999 54.169879999999999 54.772804000000001 -50.570799000000001 55.740684999999999
29.760960000000001 290.37630799999999 73.658077000000006 31.443525000000001 30.983086 31.905183000000001 28.699627 27.546039 29.216194999999999 28.182797999999998 29.149073000000001
23.231795999999999 23.225069000000001 23.955698000000002

$$$$
Z1188305542
     RDKit          3D

 25 25  0  0  0  0  0  0  0  0999 V2000
    0.6271   -1.2644   -0.0668 C   0  0  0  0  0  0  0  0  0  0  0  0
    1.7000   -0.2526    0.3166 C   0  0  0  0  0  0  0  0  0  0  0  0
    1.1215    0.9922    0.7957 N   0  0  0  0  0  0  0  0  0  0  0  0
    0.4760    1.8240   -0.1991 C   0  0  0  0  0  0  0  0  0  0  0  0
    2.0371    1.8059    1.8943 S   0  0  0  0  0  0  0  0  0  0  0  0
    1.2780    2.9416    2.3627 O   0  0  0  0  0  0  0  0  0  0  0  0
    2.4829    0.8667    2.8981 O   0  0  0  0  0  0  0  0  0  0  0  0
    3.4868    2.4153    1.0255 C   0  0  0  0  0  0  0  0  0  0  0  0
    3.4413    3.5991    0.3052 C   0  0  0  0  0  0  0  0  0  0  0  0
    4.4729    4.0462   -0.3904 N   0  0  0  0  0  0  0  0  0  0  0  0
    5.5924    3.3438   -0.4001 C   0  0  0  0  0  0  0  0  0  0  0  0
    5.7137    2.1533    0.3049 C   0  0  0  0  0  0  0  0  0  0  0  0
    6.8758    1.4702    0.2751 F   0  0  0  0  0  0  0  0  0  0  0  0
    4.6453    1.6597    1.0347 C   0  0  0  0  0  0  0  0  0  0  0  0
    1.0991   -2.2163   -0.2887 H   0  0  0  0  0  0  0  0  0  0  0  0
   -0.0655   -1.3988    0.7576 H   0  0  0  0  0  0  0  0  0  0  0  0
    0.0777   -0.9370   -0.9431 H   0  0  0  0  0  0  0  0  0  0  0  0
    2.2922   -0.6401    1.1461 H   0  0  0  0  0  0  0  0  0  0  0  0
    2.3610   -0.0601   -0.5391 H   0  0  0  0  0  0  0  0  0  0  0  0
   -0.4252    1.3254   -0.5476 H   0  0  0  0  0  0  0  0  0  0  0  0
    0.2009    2.7549    0.2889 H   0  0  0  0  0  0  0  0  0  0  0  0
    1.1372    2.0274   -1.0468 H   0  0  0  0  0  0  0  0  0  0  0  0
    2.5495    4.2074    0.3036 H   0  0  0  0  0  0  0  0  0  0  0  0
    6.4131    3.7393   -0.9800 H   0  0  0  0  0  0  0  0  0  0  0  0
    4.7068    0.7447    1.6013 H   0  0  0  0  0  0  0  0  0  0  0  0
  1  2  1  0
  2  3  1  0
  3  4  1  0
  3  5  1  0
  5  6  2  0
  5  7  2  0
  5  8  1  0
  8  9  2  0
  9 10  1  0
 10 11  2  0
 11 12  1  0
 12 13  1  0
 12 14  2  0
 14  8  1  0
  1 15  1  0
  1 16  1  0
  1 17  1  0
  2 18  1  0
  2 19  1  0
  4 20  1  0
  4 21  1  0
  4 22  1  0
  9 23  1  0
 11 24  1  0
 14 25  1  0
M  END
>  <SASA>  (4)
542.44421910397875

>  <energy in water (kcal/mol)>  (4)
-28050.63248050468

>  <boltzmann weight in water>  (4)
0.03378833260116016

>  <atom.dprop.isotropic shielding in water>  (4)
175.87198799999999 141.89142100000001 136.223446 156.20320699999999 183.43004099999999 146.78843499999999 148.80731900000001 59.583579 54.757719999999999 -49.573518 55.529549000000003
30.193671999999999 291.48983299999998 73.178674999999998 30.797070000000001 31.147811000000001 30.721109999999999 27.898229000000001 29.79494 28.861070999999999 28.224871
30.206458000000001 23.261368999999998 23.215243000000001 24.123013

$$$$
Z1188305542
     RDKit          3D

 25 25  0  0  0  0  0  0  0  0999 V2000
    0.1327   -1.2939    0.5760 C   0  0  0  0  0  0  0  0  0  0  0  0
    1.3418   -0.5141    1.0788 C   0  0  0  0  0  0  0  0  0  0  0  0
    1.1472    0.9219    0.9577 N   0  0  0  0  0  0  0  0  0  0  0  0
    1.1361    1.4545   -0.3897 C   0  0  0  0  0  0  0  0  0  0  0  0
    1.9816    1.8209    2.0558 S   0  0  0  0  0  0  0  0  0  0  0  0
    1.6228    3.2074    1.8701 O   0  0  0  0  0  0  0  0  0  0  0  0
    1.7504    1.2611    3.3678 O   0  0  0  0  0  0  0  0  0  0  0  0
    3.7287    1.6347    1.6778 C   0  0  0  0  0  0  0  0  0  0  0  0
    4.3249    2.3874    0.6777 C   0  0  0  0  0  0  0  0  0  0  0  0
    5.5940    2.2374    0.3387 N   0  0  0  0  0  0  0  0  0  0  0  0
    6.3273    1.3426    0.9776 C   0  0  0  0  0  0  0  0  0  0  0  0
    5.8005    0.5602    1.9970 C   0  0  0  0  0  0  0  0  0  0  0  0
    6.5846   -0.3356    2.6305 F   0  0  0  0  0  0  0  0  0  0  0  0
    4.4714    0.6907    2.3637 C   0  0  0  0  0  0  0  0  0  0  0  0
    0.2556   -2.3420    0.8308 H   0  0  0  0  0  0  0  0  0  0  0  0
   -0.7717   -0.9210    1.0472 H   0  0  0  0  0  0  0  0  0  0  0  0
    0.0343   -1.2080   -0.5019 H   0  0  0  0  0  0  0  0  0  0  0  0
    1.4864   -0.7015    2.1436 H   0  0  0  0  0  0  0  0  0  0  0  0
    2.2438   -0.8236    0.5331 H   0  0  0  0  0  0  0  0  0  0  0  0
    0.2411    1.1065   -0.8996 H   0  0  0  0  0  0  0  0  0  0  0  0
    1.0996    2.5373   -0.3068 H   0  0  0  0  0  0  0  0  0  0  0  0
    2.0242    1.1509   -0.9520 H   0  0  0  0  0  0  0  0  0  0  0  0
    3.7632    3.1414    0.1481 H   0  0  0  0  0  0  0  0  0  0  0  0
    7.3589    1.2483    0.6725 H   0  0  0  0  0  0  0  0  0  0  0  0
    4.0306    0.1066    3.1551 H   0  0  0  0  0  0  0  0  0  0  0  0
  1  2  1  0
  2  3  1  0
  3  4  1  0
  3  5  1  0
  5  6  2  0
  5  7  2  0
  5  8  1  0
  8  9  2  0
  9 10  1  0
 10 11  2  0
 11 12  1  0
 12 13  1  0
 12 14  2  0
 14  8  1  0
  1 15  1  0
  1 16  1  0
  1 17  1  0
  2 18  1  0
  2 19  1  0
  4 20  1  0
  4 21  1  0
  4 22  1  0
  9 23  1  0
 11 24  1  0
 14 25  1  0
M  END
>  <SASA>  (5)
542.44421910397875

>  <energy in water (kcal/mol)>  (5)
-28050.631327963674

>  <boltzmann weight in water>  (5)
0.03372262527413807

>  <atom.dprop.isotropic shielding in water>  (5)
175.76321799999999 141.947349 135.91727499999999 156.11644999999999 183.16973100000001 146.25135800000001 148.893213 59.562506999999997 54.768602999999999 -49.676282 55.531486999999998
30.187678999999999 291.45004699999998 72.944712999999993 30.776906 31.132307000000001 30.709371999999998 27.931291000000002 29.826442 28.864113 28.193010000000001 30.157601
23.270395000000001 23.214639999999999 24.113309999999998

$$$$
Z1188305542
     RDKit          3D

 25 25  0  0  0  0  0  0  0  0999 V2000
    0.1998   -1.2165    0.3641 C   0  0  0  0  0  0  0  0  0  0  0  0
    1.4483   -0.4229    0.7294 C   0  0  0  0  0  0  0  0  0  0  0  0
    1.1303    0.9515    1.0814 N   0  0  0  0  0  0  0  0  0  0  0  0
    0.6915    1.8064   -0.0027 C   0  0  0  0  0  0  0  0  0  0  0  0
    2.1795    1.6570    2.1358 S   0  0  0  0  0  0  0  0  0  0  0  0
    1.6603    2.9581    2.4855 O   0  0  0  0  0  0  0  0  0  0  0  0
    2.4134    0.7381    3.2264 O   0  0  0  0  0  0  0  0  0  0  0  0
    3.7363    1.8875    1.2669 C   0  0  0  0  0  0  0  0  0  0  0  0
    3.9368    2.9820    0.4397 C   0  0  0  0  0  0  0  0  0  0  0  0
    5.0521    3.1555   -0.2488 N   0  0  0  0  0  0  0  0  0  0  0  0
    6.0164    2.2581   -0.1445 C   0  0  0  0  0  0  0  0  0  0  0  0
    5.8890    1.1412    0.6707 C   0  0  0  0  0  0  0  0  0  0  0  0
    6.8994    0.2526    0.7553 F   0  0  0  0  0  0  0  0  0  0  0  0
    4.7274    0.9316    1.3951 C   0  0  0  0  0  0  0  0  0  0  0  0
    0.4642   -2.2636    0.2538 H   0  0  0  0  0  0  0  0  0  0  0  0
   -0.5425   -1.1216    1.1503 H   0  0  0  0  0  0  0  0  0  0  0  0
   -0.2254   -0.8660   -0.5709 H   0  0  0  0  0  0  0  0  0  0  0  0
    1.9129   -0.8529    1.6173 H   0  0  0  0  0  0  0  0  0  0  0  0
    2.1672   -0.4471   -0.1007 H   0  0  0  0  0  0  0  0  0  0  0  0
   -0.2788    1.4633   -0.3531 H   0  0  0  0  0  0  0  0  0  0  0  0
    0.5892    2.8097    0.4011 H   0  0  0  0  0  0  0  0  0  0  0  0
    1.4051    1.8070   -0.8319 H   0  0  0  0  0  0  0  0  0  0  0  0
    3.1803    3.7457    0.3449 H   0  0  0  0  0  0  0  0  0  0  0  0
    6.9125    2.4343   -0.7209 H   0  0  0  0  0  0  0  0  0  0  0  0
    4.5975    0.0815    2.0448 H   0  0  0  0  0  0  0  0  0  0  0  0
  1  2  1  0
  2  3  1  0
  3  4  1  0
  3  5  1  0
  5  6  2  0
  5  7  2  0
  5  8  1  0
  8  9  2  0
  9 10  1  0
 10 11  2  0
 11 12  1  0
 12 13  1  0
 12 14  2  0
 14  8  1  0
  1 15  1  0
  1 16  1  0
  1 17  1  0
  2 18  1  0
  2 19  1  0
  4 20  1  0
  4 21  1  0
  4 22  1  0
  9 23  1  0
 11 24  1  0
 14 25  1  0
M  END
>  <SASA>  (6)
542.44421910397875

>  <energy in water (kcal/mol)>  (6)
-28050.630521794097

>  <boltzmann weight in water>  (6)
0.03367674083453578

>  <atom.dprop.isotropic shielding in water>  (6)
175.85180099999999 142.09053399999999 135.953598 156.30267900000001 183.21663699999999 146.01518799999999 148.77086199999999 59.601422999999997 54.651442000000003 -49.497169
55.583582999999997 30.218285000000002 291.50947200000002 73.076334000000003 30.779868 31.143311000000001 30.715206999999999 27.903148999999999 29.786712000000001 28.863761 28.232173
30.190479 23.2683 23.21415 24.120998

$$$$
Z1188305542
     RDKit          3D

 25 25  0  0  0  0  0  0  0  0999 V2000
    0.5356   -1.3007    0.3866 C   0  0  0  0  0  0  0  0  0  0  0  0
    1.6337   -0.2814    0.6642 C   0  0  0  0  0  0  0  0  0  0  0  0
    1.0884    1.0030    1.0732 N   0  0  0  0  0  0  0  0  0  0  0  0
    0.3922    1.7587    0.0520 C   0  0  0  0  0  0  0  0  0  0  0  0
    2.0764    1.8955    2.0413 S   0  0  0  0  0  0  0  0  0  0  0  0
    1.3531    3.0717    2.4639 O   0  0  0  0  0  0  0  0  0  0  0  0
    2.5835    1.0369    3.0871 O   0  0  0  0  0  0  0  0  0  0  0  0
    3.4661    2.4188    1.0303 C   0  0  0  0  0  0  0  0  0  0  0  0
    3.3764    3.5417    0.2218 C   0  0  0  0  0  0  0  0  0  0  0  0
    4.3586    3.9193   -0.5787 N   0  0  0  0  0  0  0  0  0  0  0  0
    5.4698    3.2046   -0.6116 C   0  0  0  0  0  0  0  0  0  0  0  0
    5.6335    2.0723    0.1760 C   0  0  0  0  0  0  0  0  0  0  0  0
    6.7850    1.3731    0.1168 F   0  0  0  0  0  0  0  0  0  0  0  0
    4.6173    1.6521    1.0178 C   0  0  0  0  0  0  0  0  0  0  0  0
    0.9872   -2.2760    0.2330 H   0  0  0  0  0  0  0  0  0  0  0  0
   -0.1415   -1.3558    1.2334 H   0  0  0  0  0  0  0  0  0  0  0  0
   -0.0271   -1.0349   -0.5026 H   0  0  0  0  0  0  0  0  0  0  0  0
    2.2483   -0.6181    1.4997 H   0  0  0  0  0  0  0  0  0  0  0  0
    2.2686   -0.1599   -0.2240 H   0  0  0  0  0  0  0  0  0  0  0  0
   -0.5318    1.2446   -0.2011 H   0  0  0  0  0  0  0  0  0  0  0  0
    0.1533    2.7297    0.4773 H   0  0  0  0  0  0  0  0  0  0  0  0
    1.0043    1.8842   -0.8462 H   0  0  0  0  0  0  0  0  0  0  0  0
    2.4913    4.1592    0.2345 H   0  0  0  0  0  0  0  0  0  0  0  0
    6.2489    3.5427   -1.2784 H   0  0  0  0  0  0  0  0  0  0  0  0
    4.7128    0.7844    1.6504 H   0  0  0  0  0  0  0  0  0  0  0  0
  1  2  1  0
  2  3  1  0
  3  4  1  0
  3  5  1  0
  5  6  2  0
  5  7  2  0
  5  8  1  0
  8  9  2  0
  9 10  1  0
 10 11  2  0
 11 12  1  0
 12 13  1  0
 12 14  2  0
 14  8  1  0
  1 15  1  0
  1 16  1  0
  1 17  1  0
  2 18  1  0
  2 19  1  0
  4 20  1  0
  4 21  1  0
  4 22  1  0
  9 23  1  0
 11 24  1  0
 14 25  1  0
M  END
>  <SASA>  (7)
542.44421910397875

>  <energy in water (kcal/mol)>  (7)
-28050.6314765209

>  <boltzmann weight in water>  (7)
0.03373108746694357

>  <atom.dprop.isotropic shielding in water>  (7)
175.86353 141.924837 136.153548 156.266131 183.24480800000001 146.95265699999999 148.95588599999999 59.860458999999999 54.701377999999998 -49.588498000000001 55.517479999999999
30.188659999999999 291.46366699999999 73.157897000000006 30.772086999999999 31.133942000000001 30.726448000000001 27.902526000000002 29.808277 28.876771999999999 28.234323
30.242018999999999 23.264475000000001 23.214960999999999 24.130509

$$$$
Z1188305542
     RDKit          3D

 25 25  0  0  0  0  0  0  0  0999 V2000
    0.6344   -1.2805    1.0028 C   0  0  0  0  0  0  0  0  0  0  0  0
    1.7539   -0.2475    1.0419 C   0  0  0  0  0  0  0  0  0  0  0  0
    1.2852    1.0391    1.5309 N   0  0  0  0  0  0  0  0  0  0  0  0
    0.3967    1.7728    0.6525 C   0  0  0  0  0  0  0  0  0  0  0  0
    2.4384    1.9561    2.2668 S   0  0  0  0  0  0  0  0  0  0  0  0
    1.8046    3.1414    2.7943 O   0  0  0  0  0  0  0  0  0  0  0  0
    3.1440    1.1233    3.2138 O   0  0  0  0  0  0  0  0  0  0  0  0
    3.6044    2.4579    0.9949 C   0  0  0  0  0  0  0  0  0  0  0  0
    3.3566    3.5652    0.1984 C   0  0  0  0  0  0  0  0  0  0  0  0
    4.1683    3.9312   -0.7792 N   0  0  0  0  0  0  0  0  0  0  0  0
    5.2581    3.2198   -1.0080 C   0  0  0  0  0  0  0  0  0  0  0  0
    5.5735    2.1014   -0.2471 C   0  0  0  0  0  0  0  0  0  0  0  0
    6.6978    1.4054   -0.5099 F   0  0  0  0  0  0  0  0  0  0  0  0
    4.7367    1.6934    0.7781 C   0  0  0  0  0  0  0  0  0  0  0  0
    1.0581   -2.2547    0.7790 H   0  0  0  0  0  0  0  0  0  0  0  0
    0.1381   -1.3253    1.9672 H   0  0  0  0  0  0  0  0  0  0  0  0
   -0.0956   -1.0358    0.2378 H   0  0  0  0  0  0  0  0  0  0  0  0
    2.5251   -0.5647    1.7448 H   0  0  0  0  0  0  0  0  0  0  0  0
    2.1999   -0.1366    0.0440 H   0  0  0  0  0  0  0  0  0  0  0  0
   -0.5494    1.2419    0.5828 H   0  0  0  0  0  0  0  0  0  0  0  0
    0.2264    2.7447    1.1070 H   0  0  0  0  0  0  0  0  0  0  0  0
    0.8261    1.8962   -0.3461 H   0  0  0  0  0  0  0  0  0  0  0  0
    2.4867    4.1808    0.3684 H   0  0  0  0  0  0  0  0  0  0  0  0
    5.8966    3.5483   -1.8148 H   0  0  0  0  0  0  0  0  0  0  0  0
    4.9557    0.8379    1.3962 H   0  0  0  0  0  0  0  0  0  0  0  0
  1  2  1  0
  2  3  1  0
  3  4  1  0
  3  5  1  0
  5  6  2  0
  5  7  2  0
  5  8  1  0
  8  9  2  0
  9 10  1  0
 10 11  2  0
 11 12  1  0
 12 13  1  0
 12 14  2  0
 14  8  1  0
  1 15  1  0
  1 16  1  0
  1 17  1  0
  2 18  1  0
  2 19  1  0
  4 20  1  0
  4 21  1  0
  4 22  1  0
  9 23  1  0
 11 24  1  0
 14 25  1  0
M  END
>  <SASA>  (8)
542.44421910397875

>  <energy in water (kcal/mol)>  (8)
-28050.62658913763

>  <boltzmann weight in water>  (8)
0.033453800910896

>  <atom.dprop.isotropic shielding in water>  (8)
175.86062000000001 141.93083200000001 135.917125 156.26312899999999 182.94205400000001 146.856449 148.57454100000001 59.884481999999998 54.656232000000003 -49.541637999999999 55.495756
30.213117 291.49077799999998 73.073474000000004 30.771266000000001 31.134668000000001 30.722829999999998 27.904305999999998 29.806370000000001 28.880732999999999 28.239493
30.232852999999999 23.26801 23.209586999999999 24.130531999999999

$$$$
Z1188305542
     RDKit          3D

 25 25  0  0  0  0  0  0  0  0999 V2000
    0.1825   -1.2048    1.1930 C   0  0  0  0  0  0  0  0  0  0  0  0
    1.4957   -0.4801    1.4601 C   0  0  0  0  0  0  0  0  0  0  0  0
    1.3152    0.9615    1.5153 N   0  0  0  0  0  0  0  0  0  0  0  0
    1.0049    1.6165    0.2609 C   0  0  0  0  0  0  0  0  0  0  0  0
    2.4027    1.7528    2.4648 S   0  0  0  0  0  0  0  0  0  0  0  0
    2.0434    3.1509    2.4974 O   0  0  0  0  0  0  0  0  0  0  0  0
    2.4720    1.0714    3.7372 O   0  0  0  0  0  0  0  0  0  0  0  0
    4.0057    1.5975    1.6678 C   0  0  0  0  0  0  0  0  0  0  0  0
    4.3620    2.4266    0.6151 C   0  0  0  0  0  0  0  0  0  0  0  0
    5.5082    2.2988   -0.0313 N   0  0  0  0  0  0  0  0  0  0  0  0
    6.3510    1.3504    0.3385 C   0  0  0  0  0  0  0  0  0  0  0  0
    6.0656    0.4896    1.3901 C   0  0  0  0  0  0  0  0  0  0  0  0
    6.9557   -0.4601    1.7416 F   0  0  0  0  0  0  0  0  0  0  0  0
    4.8679    0.5967    2.0771 C   0  0  0  0  0  0  0  0  0  0  0  0
    0.3379   -2.2735    1.3043 H   0  0  0  0  0  0  0  0  0  0  0  0
   -0.5702   -0.8820    1.9055 H   0  0  0  0  0  0  0  0  0  0  0  0
   -0.1727   -1.0083    0.1864 H   0  0  0  0  0  0  0  0  0  0  0  0
    1.8829   -0.7655    2.4388 H   0  0  0  0  0  0  0  0  0  0  0  0
    2.2346   -0.7420    0.6904 H   0  0  0  0  0  0  0  0  0  0  0  0
    0.0045    1.3270   -0.0516 H   0  0  0  0  0  0  0  0  0  0  0  0
    1.0237    2.6871    0.4445 H   0  0  0  0  0  0  0  0  0  0  0  0
    1.7260    1.3567   -0.5196 H   0  0  0  0  0  0  0  0  0  0  0  0
    3.7083    3.2243    0.2974 H   0  0  0  0  0  0  0  0  0  0  0  0
    7.2761    1.2761   -0.2137 H   0  0  0  0  0  0  0  0  0  0  0  0
    4.6155   -0.0489    2.9026 H   0  0  0  0  0  0  0  0  0  0  0  0
  1  2  1  0
  2  3  1  0
  3  4  1  0
  3  5  1  0
  5  6  2  0
  5  7  2  0
  5  8  1  0
  8  9  2  0
  9 10  1  0
 10 11  2  0
 11 12  1  0
 12 13  1  0
 12 14  2  0
 14  8  1  0
  1 15  1  0
  1 16  1  0
  1 17  1  0
  2 18  1  0
  2 19  1  0
  4 20  1  0
  4 21  1  0
  4 22  1  0
  9 23  1  0
 11 24  1  0
 14 25  1  0
M  END
>  <SASA>  (9)
542.44421910397875

>  <energy in water (kcal/mol)>  (9)
-28050.62518747537

>  <boltzmann weight in water>  (9)
0.03337469878209338

>  <atom.dprop.isotropic shielding in water>  (9)
175.84659300000001 141.95289 136.08627799999999 156.10715999999999 183.33130299999999 146.46229199999999 149.39768699999999 59.580919000000002 54.870469999999997 -49.677087
55.583665000000003 30.223671 291.492684 73.010356999999999 30.789335000000001 31.139775 30.724145 27.941558000000001 29.852125000000001 28.855117 28.197455999999999 30.169788
23.272366000000002 23.216294000000001 24.110934

$$$$
Z1188305542
     RDKit          3D

 25 25  0  0  0  0  0  0  0  0999 V2000
    2.2084   -1.1514    0.2288 C   0  0  0  0  0  0  0  0  0  0  0  0
    1.1237   -0.3783    0.9736 C   0  0  0  0  0  0  0  0  0  0  0  0
    1.1711    1.0611    0.7931 N   0  0  0  0  0  0  0  0  0  0  0  0
    1.1071    1.5757   -0.5582 C   0  0  0  0  0  0  0  0  0  0  0  0
    2.0564    1.9309    1.8614 S   0  0  0  0  0  0  0  0  0  0  0  0
    1.7218    3.3263    1.6790 O   0  0  0  0  0  0  0  0  0  0  0  0
    1.8445    1.3782    3.1789 O   0  0  0  0  0  0  0  0  0  0  0  0
    3.7992    1.7498    1.4598 C   0  0  0  0  0  0  0  0  0  0  0  0
    4.5898    0.8239    2.1231 C   0  0  0  0  0  0  0  0  0  0  0  0
    5.8697    0.6518    1.8416 N   0  0  0  0  0  0  0  0  0  0  0  0
    6.4200    1.3862    0.8898 C   0  0  0  0  0  0  0  0  0  0  0  0
    5.6915    2.3366    0.1880 C   0  0  0  0  0  0  0  0  0  0  0  0
    6.2927    3.0707   -0.7701 F   0  0  0  0  0  0  0  0  0  0  0  0
    4.3492    2.5379    0.4654 C   0  0  0  0  0  0  0  0  0  0  0  0
    2.1385   -2.2011    0.4962 H   0  0  0  0  0  0  0  0  0  0  0  0
    2.0795   -1.0623   -0.8459 H   0  0  0  0  0  0  0  0  0  0  0  0
    3.1980   -0.7913    0.4995 H   0  0  0  0  0  0  0  0  0  0  0  0
    0.1361   -0.7137    0.6463 H   0  0  0  0  0  0  0  0  0  0  0  0
    1.2055   -0.5370    2.0492 H   0  0  0  0  0  0  0  0  0  0  0  0
    0.2193    1.1730   -1.0417 H   0  0  0  0  0  0  0  0  0  0  0  0
    1.0181    2.6564   -0.4836 H   0  0  0  0  0  0  0  0  0  0  0  0
    1.9933    1.3178   -1.1432 H   0  0  0  0  0  0  0  0  0  0  0  0
    4.1705    0.2166    2.9111 H   0  0  0  0  0  0  0  0  0  0  0  0
    7.4667    1.2162    0.6856 H   0  0  0  0  0  0  0  0  0  0  0  0
    3.7625    3.2837   -0.0452 H   0  0  0  0  0  0  0  0  0  0  0  0
  1  2  1  0
  2  3  1  0
  3  4  1  0
  3  5  1  0
  5  6  2  0
  5  7  2  0
  5  8  1  0
  8  9  2  0
  9 10  1  0
 10 11  2  0
 11 12  1  0
 12 13  1  0
 12 14  2  0
 14  8  1  0
  1 15  1  0
  1 16  1  0
  1 17  1  0
  2 18  1  0
  2 19  1  0
  4 20  1  0
  4 21  1  0
  4 22  1  0
  9 23  1  0
 11 24  1  0
 14 25  1  0
M  END
>  <SASA>  (10)
542.44421910397875

>  <energy in water (kcal/mol)>  (10)
-28051.372114467827

>  <boltzmann weight in water>  (10)
0.11783793225835812

>  <atom.dprop.isotropic shielding in water>  (10)
179.57861 142.18971400000001 141.458944 156.76157900000001 189.382632 138.91428199999999 147.86111 54.604993999999998 54.752440999999997 -52.217962 55.708652999999998 30.766157 291.8057
73.576024000000004 31.394583999999998 30.962979000000001 31.765903000000002 28.677102999999999 27.480294000000001 29.248571999999999 28.245885999999999 29.291682999999999
23.122948000000001 23.200298 24.158684999999998

$$$$
Z1188305542
     RDKit          3D

 25 25  0  0  0  0  0  0  0  0999 V2000
    2.2735   -1.0309   -0.0307 C   0  0  0  0  0  0  0  0  0  0  0  0
    1.1654   -0.3818    0.7943 C   0  0  0  0  0  0  0  0  0  0  0  0
    1.1820    1.0693    0.7969 N   0  0  0  0  0  0  0  0  0  0  0  0
    1.1137    1.7503   -0.4782 C   0  0  0  0  0  0  0  0  0  0  0  0
    2.0386    1.8140    1.9780 S   0  0  0  0  0  0  0  0  0  0  0  0
    1.6854    3.2166    1.9640 O   0  0  0  0  0  0  0  0  0  0  0  0
    1.8162    1.1021    3.2150 O   0  0  0  0  0  0  0  0  0  0  0  0
    3.7893    1.7046    1.5855 C   0  0  0  0  0  0  0  0  0  0  0  0
    4.5865    0.7293    2.1644 C   0  0  0  0  0  0  0  0  0  0  0  0
    5.8733    0.6069    1.8879 N   0  0  0  0  0  0  0  0  0  0  0  0
    6.4239    1.4428    1.0240 C   0  0  0  0  0  0  0  0  0  0  0  0
    5.6884    2.4468    0.4089 C   0  0  0  0  0  0  0  0  0  0  0  0
    6.2898    3.2827   -0.4617 F   0  0  0  0  0  0  0  0  0  0  0  0
    4.3388    2.5976    0.6837 C   0  0  0  0  0  0  0  0  0  0  0  0
    2.2260   -2.1073    0.1018 H   0  0  0  0  0  0  0  0  0  0  0  0
    2.1503   -0.8098   -1.0869 H   0  0  0  0  0  0  0  0  0  0  0  0
    3.2523   -0.6863    0.2936 H   0  0  0  0  0  0  0  0  0  0  0  0
    0.1884   -0.6947    0.4170 H   0  0  0  0  0  0  0  0  0  0  0  0
    1.2426   -0.6734    1.8421 H   0  0  0  0  0  0  0  0  0  0  0  0
    0.2338    1.3981   -1.0130 H   0  0  0  0  0  0  0  0  0  0  0  0
    1.0067    2.8112   -0.2676 H   0  0  0  0  0  0  0  0  0  0  0  0
    2.0054    1.5833   -1.0872 H   0  0  0  0  0  0  0  0  0  0  0  0
    4.1661    0.0380    2.8794 H   0  0  0  0  0  0  0  0  0  0  0  0
    7.4765    1.3124    0.8213 H   0  0  0  0  0  0  0  0  0  0  0  0
    3.7472    3.3817    0.2403 H   0  0  0  0  0  0  0  0  0  0  0  0
  1  2  1  0
  2  3  1  0
  3  4  1  0
  3  5  1  0
  5  6  2  0
  5  7  2  0
  5  8  1  0
  8  9  2  0
  9 10  1  0
 10 11  2  0
 11 12  1  0
 12 13  1  0
 12 14  2  0
 14  8  1  0
  1 15  1  0
  1 16  1  0
  1 17  1  0
  2 18  1  0
  2 19  1  0
  4 20  1  0
  4 21  1  0
  4 22  1  0
  9 23  1  0
 11 24  1  0
 14 25  1  0
M  END
>  <SASA>  (11)
542.44421910397875

>  <energy in water (kcal/mol)>  (11)
-28051.3684922221

>  <boltzmann weight in water>  (11)
0.11711923079990594

>  <atom.dprop.isotropic shielding in water>  (11)
179.51124999999999 142.31662499999999 141.209777 156.751769 189.418869 138.795241 147.81800899999999 54.614621999999997 54.800437000000002 -52.229444999999998 55.641613 30.651585000000001
291.66916400000002 73.722603000000007 31.402251 30.957552 31.844213 28.681362 27.496200999999999 29.244809 28.224381999999999 29.263660999999999 23.124690999999999 23.198533999999999
24.165230000000001

$$$$
Z1188305542
     RDKit          3D

 25 25  0  0  0  0  0  0  0  0999 V2000
    2.5069   -0.9900    0.1782 C   0  0  0  0  0  0  0  0  0  0  0  0
    1.4141   -0.4012    1.0660 C   0  0  0  0  0  0  0  0  0  0  0  0
    1.1446    1.0081    0.8473 N   0  0  0  0  0  0  0  0  0  0  0  0
    0.7706    1.4264   -0.4868 C   0  0  0  0  0  0  0  0  0  0  0  0
    1.9969    2.0901    1.7343 S   0  0  0  0  0  0  0  0  0  0  0  0
    1.3704    3.3840    1.5753 O   0  0  0  0  0  0  0  0  0  0  0  0
    2.1055    1.5842    3.0829 O   0  0  0  0  0  0  0  0  0  0  0  0
    3.6555    2.2177    1.0541 C   0  0  0  0  0  0  0  0  0  0  0  0
    4.7059    1.4942    1.5981 C   0  0  0  0  0  0  0  0  0  0  0  0
    5.9316    1.5436    1.1061 N   0  0  0  0  0  0  0  0  0  0  0  0
    6.1688    2.3093    0.0545 C   0  0  0  0  0  0  0  0  0  0  0  0
    5.1682    3.0682   -0.5371 C   0  0  0  0  0  0  0  0  0  0  0  0
    5.4544    3.8425   -1.6030 F   0  0  0  0  0  0  0  0  0  0  0  0
    3.8753    3.0343   -0.0403 C   0  0  0  0  0  0  0  0  0  0  0  0
    2.6781   -2.0217    0.4694 H   0  0  0  0  0  0  0  0  0  0  0  0
    2.2086   -0.9740   -0.8659 H   0  0  0  0  0  0  0  0  0  0  0  0
    3.4387   -0.4413    0.2905 H   0  0  0  0  0  0  0  0  0  0  0  0
    0.4758   -0.9388    0.9061 H   0  0  0  0  0  0  0  0  0  0  0  0
    1.6858   -0.4830    2.1189 H   0  0  0  0  0  0  0  0  0  0  0  0
   -0.0823    0.8336   -0.8106 H   0  0  0  0  0  0  0  0  0  0  0  0
    0.4801    2.4719   -0.4235 H   0  0  0  0  0  0  0  0  0  0  0  0
    1.5890    1.3146   -1.2018 H   0  0  0  0  0  0  0  0  0  0  0  0
    4.5444    0.8676    2.4624 H   0  0  0  0  0  0  0  0  0  0  0  0
    7.1811    2.3219   -0.3216 H   0  0  0  0  0  0  0  0  0  0  0  0
    3.0817    3.6268   -0.4636 H   0  0  0  0  0  0  0  0  0  0  0  0
  1  2  1  0
  2  3  1  0
  3  4  1  0
  3  5  1  0
  5  6  2  0
  5  7  2  0
  5  8  1  0
  8  9  2  0
  9 10  1  0
 10 11  2  0
 11 12  1  0
 12 13  1  0
 12 14  2  0
 14  8  1  0
  1 15  1  0
  1 16  1  0
  1 17  1  0
  2 18  1  0
  2 19  1  0
  4 20  1  0
  4 21  1  0
  4 22  1  0
  9 23  1  0
 11 24  1  0
 14 25  1  0
M  END
>  <SASA>  (12)
542.44421910397875

>  <energy in water (kcal/mol)>  (12)
-28051.36642619485

>  <boltzmann weight in water>  (12)
0.11671126848852967

>  <atom.dprop.isotropic shielding in water>  (12)
179.75729999999999 142.15775199999999 141.39758699999999 156.748347 189.16374999999999 139.11892599999999 148.006404 54.678119000000002 54.752755000000001 -52.303642000000004 55.658766
30.756388999999999 291.81553500000001 73.612031999999999 31.414007000000002 30.985296000000002 31.764216000000001 28.680329 27.485433 29.257013000000001 28.251669 29.306018000000002
23.117505999999999 23.197721999999999 24.170349999999999

$$$$
Z1188305542
     RDKit          3D

 25 25  0  0  0  0  0  0  0  0999 V2000
    1.9545   -1.1264   -0.2118 C   0  0  0  0  0  0  0  0  0  0  0  0
    1.2566   -0.2952    0.8589 C   0  0  0  0  0  0  0  0  0  0  0  0
    1.3236    1.1237    0.5549 N   0  0  0  0  0  0  0  0  0  0  0  0
    0.2704    1.6938   -0.2559 C   0  0  0  0  0  0  0  0  0  0  0  0
    2.0740    2.0434    1.6892 S   0  0  0  0  0  0  0  0  0  0  0  0
    1.9027    3.4362    1.3406 O   0  0  0  0  0  0  0  0  0  0  0  0
    1.7147    1.6744    3.0450 O   0  0  0  0  0  0  0  0  0  0  0  0
    3.7916    1.6066    1.4337 C   0  0  0  0  0  0  0  0  0  0  0  0
    4.5796    1.1069    2.4573 C   0  0  0  0  0  0  0  0  0  0  0  0
    5.8515    0.7877    2.2834 N   0  0  0  0  0  0  0  0  0  0  0  0
    6.3943    0.9553    1.0906 C   0  0  0  0  0  0  0  0  0  0  0  0
    5.6661    1.4556    0.0185 C   0  0  0  0  0  0  0  0  0  0  0  0
    6.2597    1.6090   -1.1821 F   0  0  0  0  0  0  0  0  0  0  0  0
    4.3322    1.7922    0.1738 C   0  0  0  0  0  0  0  0  0  0  0  0
    1.9152   -2.1758    0.0625 H   0  0  0  0  0  0  0  0  0  0  0  0
    1.4648   -0.9973   -1.1718 H   0  0  0  0  0  0  0  0  0  0  0  0
    2.9944   -0.8264   -0.3059 H   0  0  0  0  0  0  0  0  0  0  0  0
    0.2098   -0.5996    0.9573 H   0  0  0  0  0  0  0  0  0  0  0  0
    1.7418   -0.4324    1.8274 H   0  0  0  0  0  0  0  0  0  0  0  0
   -0.7173    1.4901    0.1665 H   0  0  0  0  0  0  0  0  0  0  0  0
    0.4312    2.7683   -0.2837 H   0  0  0  0  0  0  0  0  0  0  0  0
    0.3317    1.2857   -1.2635 H   0  0  0  0  0  0  0  0  0  0  0  0
    4.1618    0.9616    3.4421 H   0  0  0  0  0  0  0  0  0  0  0  0
    7.4345    0.6844    0.9851 H   0  0  0  0  0  0  0  0  0  0  0  0
    3.7388    2.1825   -0.6365 H   0  0  0  0  0  0  0  0  0  0  0  0
  1  2  1  0
  2  3  1  0
  3  4  1  0
  3  5  1  0
  5  6  2  0
  5  7  2  0
  5  8  1  0
  8  9  2  0
  9 10  1  0
 10 11  2  0
 11 12  1  0
 12 13  1  0
 12 14  2  0
 14  8  1  0
  1 15  1  0
  1 16  1  0
  1 17  1  0
  2 18  1  0
  2 19  1  0
  4 20  1  0
  4 21  1  0
  4 22  1  0
  9 23  1  0
 11 24  1  0
 14 25  1  0
M  END
>  <SASA>  (13)
542.44421910397875

>  <energy in water (kcal/mol)>  (13)
-28049.305153693822

>  <boltzmann weight in water>  (13)
0.0035906924995728453

>  <atom.dprop.isotropic shielding in water>  (13)
176.48646199999999 142.77253200000001 150.21990500000001 156.82332700000001 179.95703399999999 131.941923 133.445188 53.811306000000002 53.985833999999997 -48.602272999999997
54.974389000000002 30.277495999999999 292.25055099999997 71.643521000000007 31.412120999999999 30.878195999999999 31.916654000000001 28.910164999999999 28.022289000000001
29.429908999999999 27.869015000000001 28.887049000000001 23.140115999999999 23.240164 24.121980000000001

$$$$
