Z1188305542
     RDKit          3D

 25 25  0  0  0  0  0  0  0  0999 V2000
    2.2228   -0.8740   -0.3234 C   0  0  0  0  0  0  0  0  0  0  0  0
    1.1163   -0.3410    0.5829 C   0  0  0  0  0  0  0  0  0  0  0  0
    1.1519    1.0925    0.8049 N   0  0  0  0  0  0  0  0  0  0  0  0
    1.0929    1.9577   -0.3541 C   0  0  0  0  0  0  0  0  0  0  0  0
    2.0238    1.6330    2.0818 S   0  0  0  0  0  0  0  0  0  0  0  0
    1.7130    3.0319    2.2713 O   0  0  0  0  0  0  0  0  0  0  0  0
    1.7733    0.7556    3.2033 O   0  0  0  0  0  0  0  0  0  0  0  0
    3.7750    1.5214    1.6865 C   0  0  0  0  0  0  0  0  0  0  0  0
    4.3737    2.4313    0.8292 C   0  0  0  0  0  0  0  0  0  0  0  0
    5.6518    2.3565    0.4975 N   0  0  0  0  0  0  0  0  0  0  0  0
    6.3918    1.3876    1.0068 C   0  0  0  0  0  0  0  0  0  0  0  0
    5.8630    0.4486    1.8830 C   0  0  0  0  0  0  0  0  0  0  0  0
    6.6547   -0.5190    2.3884 F   0  0  0  0  0  0  0  0  0  0  0  0
    4.5254    0.4982    2.2373 C   0  0  0  0  0  0  0  0  0  0  0  0
    2.1546   -1.9569   -0.3636 H   0  0  0  0  0  0  0  0  0  0  0  0
    2.1179   -0.4859   -1.3322 H   0  0  0  0  0  0  0  0  0  0  0  0
    3.2042   -0.6029    0.0589 H   0  0  0  0  0  0  0  0  0  0  0  0
    0.1391   -0.5797    0.1555 H   0  0  0  0  0  0  0  0  0  0  0  0
    1.1788   -0.7895    1.5750 H   0  0  0  0  0  0  0  0  0  0  0  0
    0.2031    1.7064   -0.9279 H   0  0  0  0  0  0  0  0  0  0  0  0
    1.0097    2.9770    0.0134 H   0  0  0  0  0  0  0  0  0  0  0  0
    1.9784    1.8658   -0.9867 H   0  0  0  0  0  0  0  0  0  0  0  0
    3.8095    3.2502    0.4107 H   0  0  0  0  0  0  0  0  0  0  0  0
    7.4307    1.3596    0.7135 H   0  0  0  0  0  0  0  0  0  0  0  0
    4.0774   -0.2108    2.9149 H   0  0  0  0  0  0  0  0  0  0  0  0
  1  2  1  0
  2  3  1  0
  3  4  1  0
  3  5  1  0
  5  6  2  0
  5  7  2  0
  5  8  1  0
  8  9  2  0
  9 10  1  0
 10 11  2  0
 11 12  1  0
 12 13  1  0
 12 14  2  0
 14  8  1  0
  1 15  1  0
  1 16  1  0
  1 17  1  0
  2 18  1  0
  2 19  1  0
  4 20  1  0
  4 21  1  0
  4 22  1  0
  9 23  1  0
 11 24  1  0
 14 25  1  0
M  END
>  <SASA>  (1)
542.44421910397875

>  <energy in water (kcal/mol)>  (1)
-28051.507323767913

>  <boltzmann weight in water>  (1)
0.1480677773594316

>  <atom.dprop.isotropic shielding in water>  (1)
179.54301000000001 142.355537 141.100796 156.75980100000001 190.00276400000001 139.18972400000001 146.88760199999999 54.005952999999998 55.045672000000003 -50.960698999999998
55.816923000000003 29.830762 290.389748 73.629739000000001 31.452580000000001 30.970565000000001 32.006028999999998 28.699752 27.575223000000001 29.227765999999999 28.160786999999999
29.12942 23.233079 23.220669000000001 23.958030000000001

$$$$
Z1625511334
     RDKit          3D

 25 26  0  0  0  0  0  0  0  0999 V2000
    0.9235    1.7250    3.4312 O   0  0  0  0  0  0  0  0  0  0  0  0
    0.3105    1.4093    2.4140 C   0  0  0  0  0  0  0  0  0  0  0  0
    0.9125    1.0939    1.2515 N   0  0  0  0  0  0  0  0  0  0  0  0
    2.3372    0.9862    1.1118 C   0  0  0  0  0  0  0  0  0  0  0  0
    2.7932   -0.4736    1.0915 C   0  0  0  0  0  0  0  0  0  0  0  0
    4.1174   -0.5497    0.7767 F   0  0  0  0  0  0  0  0  0  0  0  0
    2.6754   -1.0520    2.3195 F   0  0  0  0  0  0  0  0  0  0  0  0
   -1.1742    1.3618    2.3463 C   0  0  0  0  0  0  0  0  0  0  0  0
   -1.9245    1.6611    3.4908 C   0  0  0  0  0  0  0  0  0  0  0  0
   -3.3040    1.6121    3.4570 C   0  0  0  0  0  0  0  0  0  0  0  0
   -3.8987    1.2601    2.2490 C   0  0  0  0  0  0  0  0  0  0  0  0
   -5.2225    1.0897    1.7672 C   0  0  0  0  0  0  0  0  0  0  0  0
   -5.1201    0.7301    0.4560 C   0  0  0  0  0  0  0  0  0  0  0  0
   -3.8074    0.6611    0.0794 N   0  0  0  0  0  0  0  0  0  0  0  0
   -3.0335    0.9781    1.1469 C   0  0  0  0  0  0  0  0  0  0  0  0
   -1.7114    1.0187    1.1743 N   0  0  0  0  0  0  0  0  0  0  0  0
   -3.4699    0.4203   -0.8381 H   0  0  0  0  0  0  0  0  0  0  0  0
    0.2985    0.8319    0.4902 H   0  0  0  0  0  0  0  0  0  0  0  0
    2.7959    1.4849    1.9718 H   0  0  0  0  0  0  0  0  0  0  0  0
    2.6748    1.4548    0.1847 H   0  0  0  0  0  0  0  0  0  0  0  0
    2.2438   -1.1063    0.3815 H   0  0  0  0  0  0  0  0  0  0  0  0
   -1.3845    1.9256    4.3863 H   0  0  0  0  0  0  0  0  0  0  0  0
   -3.8937    1.8372    4.3324 H   0  0  0  0  0  0  0  0  0  0  0  0
   -6.1237    1.2204    2.3305 H   0  0  0  0  0  0  0  0  0  0  0  0
   -5.9016    0.5145   -0.2456 H   0  0  0  0  0  0  0  0  0  0  0  0
  1  2  2  0
  2  3  1  0
  3  4  1  0
  4  5  1  0
  5  6  1  0
  5  7  1  0
  2  8  1  0
  8  9  2  0
  9 10  1  0
 10 11  2  0
 11 12  1  0
 12 13  2  0
 13 14  1  0
 14 15  1  0
 15 11  1  0
 15 16  2  0
 16  8  1  0
 14 17  1  0
  3 18  1  0
  4 19  1  0
  4 20  1  0
  5 21  1  0
  9 22  1  0
 10 23  1  0
 12 24  1  0
 13 25  1  0
M  END
>  <energy in water (kcal/mol)>  (1)
-30341.78652400438

>  <boltzmann weight in water>  (1)
0.12306856545006858

>  <atom.dprop.isotropic shielding in water>  (1)
32.162731000000001 32.345889999999997 153.377218 144.961724 65.368864000000002 302.656159 306.63294100000002 55.280918999999997 82.100123999999994 68.568793999999997 72.245323999999997
94.646612000000005 67.794505999999998 116.138989 50.504460000000002 9.8772079999999995 23.008745000000001 23.163485999999999 27.050825 28.434549000000001 25.562311000000001 23.7804
23.639326000000001 25.142534999999999 24.204522000000001

$$$$
Z1665678644
     RDKit          3D

 23 24  0  0  0  0  0  0  0  0999 V2000
    3.7336   -0.5918   -0.0312 C   0  0  0  0  0  0  0  0  0  0  0  0
    2.4005    0.0541   -0.0214 C   0  0  0  0  0  0  0  0  0  0  0  0
    1.2093   -0.6886   -0.0246 C   0  0  0  0  0  0  0  0  0  0  0  0
    0.0376    0.0424   -0.0159 C   0  0  0  0  0  0  0  0  0  0  0  0
   -1.3067   -0.6444    0.0060 C   0  0  0  0  0  0  0  0  0  0  0  0
   -1.7225   -0.8894    1.2652 F   0  0  0  0  0  0  0  0  0  0  0  0
   -2.2738    0.0639   -0.5835 F   0  0  0  0  0  0  0  0  0  0  0  0
   -1.2771   -1.8405   -0.6080 F   0  0  0  0  0  0  0  0  0  0  0  0
   -0.0030    1.3664   -0.0002 N   0  0  0  0  0  0  0  0  0  0  0  0
    1.1799    1.9790   -0.0005 C   0  0  0  0  0  0  0  0  0  0  0  0
    1.1667    3.3512    0.0093 N   0  0  0  0  0  0  0  0  0  0  0  0
    2.2638    4.1879    0.0120 C   0  0  0  0  0  0  0  0  0  0  0  0
    1.7660    5.4497    0.0217 C   0  0  0  0  0  0  0  0  0  0  0  0
    0.3936    5.4202    0.0248 N   0  0  0  0  0  0  0  0  0  0  0  0
    0.0641    4.1692    0.0172 C   0  0  0  0  0  0  0  0  0  0  0  0
    2.3613    1.3802   -0.0101 N   0  0  0  0  0  0  0  0  0  0  0  0
    3.6458   -1.6719   -0.0383 H   0  0  0  0  0  0  0  0  0  0  0  0
    4.2893   -0.2592   -0.9048 H   0  0  0  0  0  0  0  0  0  0  0  0
    4.2967   -0.2707    0.8419 H   0  0  0  0  0  0  0  0  0  0  0  0
    1.2046   -1.7646   -0.0388 H   0  0  0  0  0  0  0  0  0  0  0  0
    3.2587    3.8000    0.0066 H   0  0  0  0  0  0  0  0  0  0  0  0
    2.2861    6.3853    0.0266 H   0  0  0  0  0  0  0  0  0  0  0  0
   -0.9339    3.7830    0.0155 H   0  0  0  0  0  0  0  0  0  0  0  0
  1  2  1  0
  2  3  2  0
  3  4  1  0
  4  5  1  0
  5  6  1  0
  5  7  1  0
  5  8  1  0
  4  9  2  0
  9 10  1  0
 10 11  1  0
 11 12  1  0
 12 13  2  0
 13 14  1  0
 14 15  2  0
 15 11  1  0
 10 16  2  0
 16  2  1  0
  1 17  1  0
  1 18  1  0
  1 19  1  0
  3 20  1  0
 12 21  1  0
 13 22  1  0
 15 23  1  0
M  END
>  <energy in water (kcal/mol)>  (1)
-30606.417188509422

>  <boltzmann weight in water>  (1)
0.11909250739194996

>  <atom.dprop.isotropic shielding in water>  (1)
164.90631200000001 21.285409000000001 79.513610999999997 39.078865 57.936422 230.87336099999999 254.253209 248.85015999999999 15.361686000000001 41.340045000000003 56.906046000000003
79.736457000000001 64.935554999999994 -2.4941330000000002 61.901086999999997 -8.0853859999999997 29.415900000000001 29.235365000000002 29.241786000000001 24.409452000000002
23.745180000000001 24.637823000000001 23.325659000000002

$$$$
