CHEMBL506259
     RDKit          3D

  7  6  0  0  0  0  0  0  0  0999 V2000
    0.4020   -0.1330    1.0000 O   0  0  0  0  0  0  0  0  0  0  0  0
    0.8762    0.9974    1.0000 C   0  0  0  0  0  0  0  0  0  0  0  0
    0.3661    2.1107    1.0000 O   0  0  0  0  0  0  0  0  0  0  0  0
    2.4870    1.0048    1.0000 C   0  0  0  0  0  0  0  0  0  0  0  0
    3.0331    2.2374    1.0000 F   0  0  0  0  0  0  0  0  0  0  0  0
    3.0077    0.3740    2.0771 F   0  0  0  0  0  0  0  0  0  0  0  0
    3.0077    0.3740   -0.0771 F   0  0  0  0  0  0  0  0  0  0  0  0
  1  2  2  0
  2  3  1  0
  2  4  1  0
  4  5  1  0
  4  6  1  0
  4  7  1  0
M  CHG  1   3  -1
M  END
>  <energy in water (kcal/mol)>  (1)
-16922.41742636991

>  <boltzmann weight in water>  (1)
1.0

>  <atom.dprop.turbomole isotropic shielding in water>  (1)
61.629227999999998 40.265625999999997 50.411230000000003 60.391309 254.44224600000001 252.855389 252.85149799999999

>  <atom.dprop.nwchem isotropic shielding in water>  (1)
61.6658 39.0584 49.7953 59.1688 254.7047 253.1 253.1

>  <atom.dprop.gaussian isotropic shielding in water>  (1)
75.5298 43.0541 62.4627 67.8538 285.1668 281.3981 281.3981

$$$$
